/*--------------------------------*- C++ -*----------------------------------*\
| =========                 |                                                 |
| \\      /  F ield         | OpenFOAM: The Open Source CFD Toolbox           |
|  \\    /   O peration     | Version:  v1812                                 |
|   \\  /    A nd           | Web:      www.OpenFOAM.com                      |
|    \\/     M anipulation  |                                                 |
\*---------------------------------------------------------------------------*/
FoamFile
{
    version     2.0;
    format      ascii;
    class       polyBoundaryMesh;
    location    "constant/polyMesh";
    object      boundary;
}
// * * * * * * * * * * * * * * * * * * * * * * * * * * * * * * * * * * * * * //

3
(
    left
    {
        type            patch;
        nFaces          1;
        startFace       49;
    }
    right
    {
        type            patch;
        nFaces          1;
        startFace       50;
    }
    others
    {
        type            empty;
        inGroups        1(empty);
        nFaces          200;
        startFace       51;
    }
)

// ************************************************************************* //
