/*--------------------------------*- C++ -*----------------------------------*\
| =========                 |                                                 |
| \\      /  F ield         | OpenFOAM: The Open Source CFD Toolbox           |
|  \\    /   O peration     | Version:  v1812                                 |
|   \\  /    A nd           | Web:      www.OpenFOAM.com                      |
|    \\/     M anipulation  |                                                 |
\*---------------------------------------------------------------------------*/
FoamFile
{
    version     2.0;
    format      ascii;
    class       polyBoundaryMesh;
    location    "constant/polyMesh";
    object      boundary;
}
// * * * * * * * * * * * * * * * * * * * * * * * * * * * * * * * * * * * * * //

5
(
    left
    {
        type            patch;
        nFaces          136;
        startFace       36720;
    }
    right
    {
        type            patch;
        nFaces          136;
        startFace       36856;
    }
    upper
    {
        type            patch;
        nFaces          136;
        startFace       36992;
    }
    lower
    {
        type            patch;
        nFaces          136;
        startFace       37128;
    }
    others
    {
        type            empty;
        inGroups        1(empty);
        nFaces          36992;
        startFace       37264;
    }
)

// ************************************************************************* //
